Circuit: * C:\Users\steph\Documents\Labyrinth Local\SmokeMachine\Test.asc

WARNING: Less than two connections to node N004.  This node is used by A1.
WARNING: Less than two connections to node N005.  This node is used by A2.
Direct Newton iteration failed to find .op point.  (Use ".option noopiter" to skip.)
Starting Gmin stepping
Gmin = 10
Gmin = 1.07374
Gmin = 0.115292
Gmin = 0.0123794
Gmin = 0.00132923
Gmin = 0.000142725
Gmin = 1.5325e-005
Gmin = 1.6455e-006
Gmin = 1.76685e-007
Gmin = 1.89714e-008
Gmin = 2.03704e-009
Gmin = 2.18725e-010
Gmin = 2.34854e-011
Gmin = 2.52173e-012
Gmin = 2.70769e-013
Gmin = 0
Gmin stepping succeeded in finding the operating point.


Date: Wed May 17 16:11:46 2023
Total elapsed time: 0.085 seconds.

tnom = 27
temp = 27
method = modified trap
totiter = 3772
traniter = 3337
tranpoints = 1154
accept = 1122
rejected = 32
matrix size = 18
fillins = 0
solver = Normal
Matrix Compiler1: 784 bytes object code size  0.3/0.2/[0.1]
Matrix Compiler2: 1.31 KB object code size  0.3/0.4/[0.2]

